*circuit for Lab#1, parts c thru f
.include "C:/Users/The Gt Zan/Documents/jsim/50002/nominal.jsim"

*2-input NAND: inputs are A, b and output is Z
.subckt nand2 a b z
MPD1 z a 1 0 NENH sw=8 sl = 1 
MPD2 1 b 0 0 NENH sw=8 sl=1
MPU1 z a vdd vdd PENH sw=10 sl=1
MPU2 z b vdd vdd PENH sw=10 sl=1 
.ends

*invertor : input is A , output is Z
.subckt inv a z
MPD1 z a 0 0 NENH sw=16 sl=1 
MPU1 z a vdd vdd PENH sw=10 sl=1
.ends 

* test jig for measuring tcd and tpd 
Xdriver vin nin inv 
Xtest vdd nin nout nand2 
Cload nout 0 .02pf 
Vin vin 0 pulse(3.3,0,5ns,.1ns,.1ns,4.8ns) 

Vol vol 0 0.3v // make measurements easier!
Vil vil 0 0.6v
Vih vih 0 2.6v
Voh voh 0 3.0v 
.tran 15ns 
.plot vin 
.plot nin nout vol vil vih voh
.temp 100


